! Program Version,EnergyPlus, Version 23.2.0-7636e6b3e9, YMD=2024.06.17 20:26,
! Output:Meter Objects (applicable to this run)
Output:Meter,Electricity:Facility,hourly; !- [J]
Output:Meter:Cumulative,Electricity:Facility,hourly; !- [J]
Output:Meter,Electricity:Building,hourly; !- [J]
Output:Meter:Cumulative,Electricity:Building,hourly; !- [J]
Output:Meter,Electricity:Zone:ROOM_2_D67BD6DB,hourly; !- [J]
Output:Meter:Cumulative,Electricity:Zone:ROOM_2_D67BD6DB,hourly; !- [J]
Output:Meter,Electricity:SpaceType:GENERIC OFFICE PROGRAM,hourly; !- [J]
Output:Meter:Cumulative,Electricity:SpaceType:GENERIC OFFICE PROGRAM,hourly; !- [J]
Output:Meter,InteriorLights:Electricity,hourly; !- [J]
Output:Meter:Cumulative,InteriorLights:Electricity,hourly; !- [J]
Output:Meter,InteriorLights:Electricity:Zone:ROOM_2_D67BD6DB,hourly; !- [J]
Output:Meter:Cumulative,InteriorLights:Electricity:Zone:ROOM_2_D67BD6DB,hourly; !- [J]
Output:Meter,InteriorLights:Electricity:SpaceType:GENERIC OFFICE PROGRAM,hourly; !- [J]
Output:Meter:Cumulative,InteriorLights:Electricity:SpaceType:GENERIC OFFICE PROGRAM,hourly; !- [J]
Output:Meter,General:InteriorLights:Electricity,hourly; !- [J]
Output:Meter:Cumulative,General:InteriorLights:Electricity,hourly; !- [J]
Output:Meter,General:InteriorLights:Electricity:Zone:ROOM_2_D67BD6DB,hourly; !- [J]
Output:Meter:Cumulative,General:InteriorLights:Electricity:Zone:ROOM_2_D67BD6DB,hourly; !- [J]
Output:Meter,General:InteriorLights:Electricity:SpaceType:GENERIC OFFICE PROGRAM,hourly; !- [J]
Output:Meter:Cumulative,General:InteriorLights:Electricity:SpaceType:GENERIC OFFICE PROGRAM,hourly; !- [J]
Output:Meter,InteriorEquipment:Electricity,hourly; !- [J]
Output:Meter:Cumulative,InteriorEquipment:Electricity,hourly; !- [J]
Output:Meter,InteriorEquipment:Electricity:Zone:ROOM_2_D67BD6DB,hourly; !- [J]
Output:Meter:Cumulative,InteriorEquipment:Electricity:Zone:ROOM_2_D67BD6DB,hourly; !- [J]
Output:Meter,InteriorEquipment:Electricity:SpaceType:GENERIC OFFICE PROGRAM,hourly; !- [J]
Output:Meter:Cumulative,InteriorEquipment:Electricity:SpaceType:GENERIC OFFICE PROGRAM,hourly; !- [J]
Output:Meter,Electric Equipment:InteriorEquipment:Electricity,hourly; !- [J]
Output:Meter:Cumulative,Electric Equipment:InteriorEquipment:Electricity,hourly; !- [J]
Output:Meter,Electric Equipment:InteriorEquipment:Electricity:Zone:ROOM_2_D67BD6DB,hourly; !- [J]
Output:Meter:Cumulative,Electric Equipment:InteriorEquipment:Electricity:Zone:ROOM_2_D67BD6DB,hourly; !- [J]
Output:Meter,Electric Equipment:InteriorEquipment:Electricity:SpaceType:GENERIC OFFICE PROGRAM,hourly; !- [J]
Output:Meter:Cumulative,Electric Equipment:InteriorEquipment:Electricity:SpaceType:GENERIC OFFICE PROGRAM,hourly; !- [J]
Output:Meter,EnergyTransfer:Facility,hourly; !- [J]
Output:Meter:Cumulative,EnergyTransfer:Facility,hourly; !- [J]
Output:Meter,EnergyTransfer:Building,hourly; !- [J]
Output:Meter:Cumulative,EnergyTransfer:Building,hourly; !- [J]
Output:Meter,EnergyTransfer:Zone:ROOM_2_D67BD6DB,hourly; !- [J]
Output:Meter:Cumulative,EnergyTransfer:Zone:ROOM_2_D67BD6DB,hourly; !- [J]
Output:Meter,Heating:EnergyTransfer,hourly; !- [J]
Output:Meter:Cumulative,Heating:EnergyTransfer,hourly; !- [J]
Output:Meter,Heating:EnergyTransfer:Zone:ROOM_2_D67BD6DB,hourly; !- [J]
Output:Meter:Cumulative,Heating:EnergyTransfer:Zone:ROOM_2_D67BD6DB,hourly; !- [J]
Output:Meter,General:Heating:EnergyTransfer,hourly; !- [J]
Output:Meter:Cumulative,General:Heating:EnergyTransfer,hourly; !- [J]
Output:Meter,General:Heating:EnergyTransfer:Zone:ROOM_2_D67BD6DB,hourly; !- [J]
Output:Meter:Cumulative,General:Heating:EnergyTransfer:Zone:ROOM_2_D67BD6DB,hourly; !- [J]
Output:Meter,Cooling:EnergyTransfer,hourly; !- [J]
Output:Meter:Cumulative,Cooling:EnergyTransfer,hourly; !- [J]
Output:Meter,Cooling:EnergyTransfer:Zone:ROOM_2_D67BD6DB,hourly; !- [J]
Output:Meter:Cumulative,Cooling:EnergyTransfer:Zone:ROOM_2_D67BD6DB,hourly; !- [J]
Output:Meter,General:Cooling:EnergyTransfer,hourly; !- [J]
Output:Meter:Cumulative,General:Cooling:EnergyTransfer,hourly; !- [J]
Output:Meter,General:Cooling:EnergyTransfer:Zone:ROOM_2_D67BD6DB,hourly; !- [J]
Output:Meter:Cumulative,General:Cooling:EnergyTransfer:Zone:ROOM_2_D67BD6DB,hourly; !- [J]
Output:Meter,ElectricityPurchased:Facility,hourly; !- [J]
Output:Meter:Cumulative,ElectricityPurchased:Facility,hourly; !- [J]
Output:Meter,ElectricityPurchased:Plant,hourly; !- [J]
Output:Meter:Cumulative,ElectricityPurchased:Plant,hourly; !- [J]
Output:Meter,Cogeneration:ElectricityPurchased,hourly; !- [J]
Output:Meter:Cumulative,Cogeneration:ElectricityPurchased,hourly; !- [J]
Output:Meter,General:Cogeneration:ElectricityPurchased,hourly; !- [J]
Output:Meter:Cumulative,General:Cogeneration:ElectricityPurchased,hourly; !- [J]
Output:Meter,ElectricitySurplusSold:Facility,hourly; !- [J]
Output:Meter:Cumulative,ElectricitySurplusSold:Facility,hourly; !- [J]
Output:Meter,ElectricitySurplusSold:Plant,hourly; !- [J]
Output:Meter:Cumulative,ElectricitySurplusSold:Plant,hourly; !- [J]
Output:Meter,Cogeneration:ElectricitySurplusSold,hourly; !- [J]
Output:Meter:Cumulative,Cogeneration:ElectricitySurplusSold,hourly; !- [J]
Output:Meter,General:Cogeneration:ElectricitySurplusSold,hourly; !- [J]
Output:Meter:Cumulative,General:Cogeneration:ElectricitySurplusSold,hourly; !- [J]
Output:Meter,ElectricityNet:Facility,hourly; !- [J]
Output:Meter:Cumulative,ElectricityNet:Facility,hourly; !- [J]
Output:Meter,ElectricityNet:Plant,hourly; !- [J]
Output:Meter:Cumulative,ElectricityNet:Plant,hourly; !- [J]
Output:Meter,Cogeneration:ElectricityNet,hourly; !- [J]
Output:Meter:Cumulative,Cogeneration:ElectricityNet,hourly; !- [J]
Output:Meter,General:Cogeneration:ElectricityNet,hourly; !- [J]
Output:Meter:Cumulative,General:Cogeneration:ElectricityNet,hourly; !- [J]
Output:Meter,DistrictHeatingWater:Facility,hourly; !- [J]
Output:Meter:Cumulative,DistrictHeatingWater:Facility,hourly; !- [J]
Output:Meter,DistrictHeatingWater:HVAC,hourly; !- [J]
Output:Meter:Cumulative,DistrictHeatingWater:HVAC,hourly; !- [J]
Output:Meter,Heating:DistrictHeatingWater,hourly; !- [J]
Output:Meter:Cumulative,Heating:DistrictHeatingWater,hourly; !- [J]
Output:Meter,General:Heating:DistrictHeatingWater,hourly; !- [J]
Output:Meter:Cumulative,General:Heating:DistrictHeatingWater,hourly; !- [J]
Output:Meter,DistrictCooling:Facility,hourly; !- [J]
Output:Meter:Cumulative,DistrictCooling:Facility,hourly; !- [J]
Output:Meter,DistrictCooling:HVAC,hourly; !- [J]
Output:Meter:Cumulative,DistrictCooling:HVAC,hourly; !- [J]
Output:Meter,Cooling:DistrictCooling,hourly; !- [J]
Output:Meter:Cumulative,Cooling:DistrictCooling,hourly; !- [J]
Output:Meter,General:Cooling:DistrictCooling,hourly; !- [J]
Output:Meter:Cumulative,General:Cooling:DistrictCooling,hourly; !- [J]
Output:Meter,Carbon Equivalent:Facility,hourly; !- [kg]
Output:Meter:Cumulative,Carbon Equivalent:Facility,hourly; !- [kg]
Output:Meter,CarbonEquivalentEmissions:Carbon Equivalent,hourly; !- [kg]
Output:Meter:Cumulative,CarbonEquivalentEmissions:Carbon Equivalent,hourly; !- [kg]
